@<TRIPOS>MOLECULE
*****
 44 44 0 0 0
SMALL
GASTEIGER

@<TRIPOS>ATOM
      1 C          -5.6868   -5.1707    0.8745 C.ar    1  UNL1        0.0000
      2 C          -4.4174   -5.2554    1.4498 C.ar    1  UNL1        0.0000
      3 N          -4.2571   -5.9048    2.6306 N.ar    1  UNL1        0.0000
      4 C          -5.3167   -6.4737    3.2598 C.ar    1  UNL1        0.0000
      5 H          -3.3072   -5.9677    3.0603 H       1  UNL1        0.0000
      6 C          -6.5887   -6.3915    2.6877 C.ar    1  UNL1        0.0000
      7 N          -6.7673   -5.7377    1.4935 N.ar    1  UNL1        0.0000
      8 H          -5.1768   -6.9894    4.2016 H       1  UNL1        0.0000
      9 H          -7.4072   -6.8563    3.2176 H       1  UNL1        0.0000
     10 H          -5.8007   -4.6490   -0.0690 H       1  UNL1        0.0000
     11 H          -3.5658   -4.8050    0.9556 H       1  UNL1        0.0000
     12 C          -8.0756   -5.6018    0.8170 C.3     1  UNL1        0.0000
     13 C          -9.2614   -6.2543    1.5493 C.3     1  UNL1        0.0000
     14 H          -7.9992   -6.0594   -0.1947 H       1  UNL1        0.0000
     15 H          -8.2984   -4.5183    0.6942 H       1  UNL1        0.0000
     16 C         -10.5621   -6.0563    0.7702 C.3     1  UNL1        0.0000
     17 H          -9.3752   -5.7920    2.5542 H       1  UNL1        0.0000
     18 H          -9.0742   -7.3451    1.6576 H       1  UNL1        0.0000
     19 SI        -12.0498   -6.8896    1.7148 Si      1  UNL1        0.0000
     20 H         -10.4797   -6.5183   -0.2366 H       1  UNL1        0.0000
     21 H         -10.7788   -4.9727    0.6561 H       1  UNL1        0.0000
     22 H         -11.7760   -8.4075    1.8672 H       1  UNL1        0.0000
     23 H         -13.3559   -6.6756    0.9084 H       1  UNL1        0.0000
     24 H         -12.1934   -6.2454    3.1171 H       1  UNL1        0.0000
     25 C          -1.6863   -7.5949    7.5698 C.ar    2  UNL2        0.0000
     26 C           0.1592   -6.6775    8.7442 C.ar    2  UNL2        0.0000
     27 C          -2.1167   -6.3166    7.2064 C.ar    2  UNL2        0.0000
     28 C          -0.2433   -5.3844    8.3988 C.ar    2  UNL2        0.0000
     29 C          -1.3886   -5.2046    7.6250 C.ar    2  UNL2        0.0000
     30 H           0.3351   -4.5314    8.7332 H       2  UNL2        0.0000
     31 H          -3.0095   -6.1974    6.6042 H       2  UNL2        0.0000
     32 N          -0.5608   -7.7728    8.3301 N.ar    2  UNL2        0.0000
     33 H           1.0519   -6.7728    9.3446 H       2  UNL2        0.0000
     34 H          -2.2643   -8.4493    7.2359 H       2  UNL2        0.0000
     35 C          -0.1924   -9.1675    8.6585 C.3     2  UNL2        0.0000
     36 C           1.0785   -9.3267    9.5117 C.3     2  UNL2        0.0000
     37 H          -0.0419   -9.7257    7.7075 H       2  UNL2        0.0000
     38 H          -1.0391   -9.6361    9.2083 H       2  UNL2        0.0000
     39 H           1.9469   -8.8926    8.9702 H       2  UNL2        0.0000
     40 C           1.3699  -10.7998    9.7921 C.3     2  UNL2        0.0000
     41 H           0.9430   -8.8031   10.4830 H       2  UNL2        0.0000
     42 H           1.5232  -11.3501    8.8393 H       2  UNL2        0.0000
     43 H           0.5244  -11.2611   10.3455 H       2  UNL2        0.0000
     44 SI          3.1486  -10.9881   10.9822 Si      2  UNL2        0.0000
     45 O          -1.7506   -4.0828    7.3167 O.2     2  UNL2        0.0000
@<TRIPOS>BOND
     1     1     2   ar
     2     2     3   ar
     3     3     4   ar
     4     3     5    1
     5     4     6   ar
     6     6     7   ar
     7     1     7   ar
     8     4     8    1
     9     6     9    1
    10     1    10    1
    11     2    11    1
    12     7    12    1
    13    12    13    1
    14    12    14    1
    15    12    15    1
    16    13    16    1
    17    13    17    1
    18    13    18    1
    19    16    19    1
    20    16    20    1
    21    16    21    1
    22    19    22    1
    23    19    23    1
    24    19    24    1
    25    27    25   ar
    26    26    28   ar
    27    28    29   ar
    28    28    30    1
    29    27    29   ar
    30    27    31    1
    31    26    32   ar
    32    26    33    1
    33    32    25   ar
    34    25    34    1
    35    32    35    1
    36    35    36    1
    37    35    37    1
    38    35    38    1
    39    36    39    1
    40    36    40    1
    41    36    41    1
    42    40    42    1
    43    40    43    1
    44    40    44    1
    45    29    45    2
