@<TRIPOS>MOLECULE
*****
 26 28 0 0 0
SMALL
GASTEIGER

@<TRIPOS>ATOM
      1 C          -1.5847    1.1071   -0.2162 C.3     1  UNL1       -0.0473
      2 C          -0.6083    0.8543    0.9552 C.3     1  UNL1       -0.0403
      3 H          -3.6133   -0.5923    0.6075 H       1  UNL1        0.0271
      4 H          -2.9194   -0.7530    3.0217 H       1  UNL1        0.0301
      5 C          -2.9750    1.4862    0.3421 C.3     1  UNL1       -0.0403
      6 H          -3.4095    1.6322    3.6622 H       1  UNL1        0.0271
      7 H          -1.7269    1.1832    4.1010 H       1  UNL1        0.0271
      8 C          -1.1444   -0.3003    1.8315 C.3     1  UNL1       -0.0473
      9 C          -2.8525    2.7679    1.1972 C.3     1  UNL1       -0.0473
     10 H          -3.6769    1.6676   -0.5007 H       1  UNL1        0.0301
     11 C          -3.5094    0.3309    1.2192 C.3     1  UNL1       -0.0473
     12 H          -2.4807    3.6074    0.5694 H       1  UNL1        0.0271
     13 H          -3.8519    3.0576    1.5905 H       1  UNL1        0.0271
     14 C          -1.8782    2.5162    2.3700 C.3     1  UNL1       -0.0403
     15 C          -2.5346    0.0779    2.3912 C.3     1  UNL1       -0.0403
     16 C          -2.4146    1.3606    3.2452 C.3     1  UNL1       -0.0473
     17 C          -0.4883    2.1354    1.8114 C.3     1  UNL1       -0.0473
     18 H          -1.2200   -1.2307    1.2266 H       1  UNL1        0.0271
     19 H          -0.4397   -0.4983    2.6689 H       1  UNL1        0.0271
     20 H          -4.5166    0.5894    1.6139 H       1  UNL1        0.0271
     21 H          -1.1992    1.9278   -0.8604 H       1  UNL1        0.0271
     22 H          -1.6660    0.1937   -0.8456 H       1  UNL1        0.0271
     23 H           0.2229    1.9650    2.6495 H       1  UNL1        0.0271
     24 H          -0.0876    2.9682    1.1928 H       1  UNL1        0.0271
     25 H           0.3914    0.5817    0.5527 H       1  UNL1        0.0301
     26 H          -1.7912    3.4383    2.9848 H       1  UNL1        0.0301
@<TRIPOS>BOND
     1     1     2    1
     2    11     3    1
     3    15     4    1
     4     1     5    1
     5     8    18    1
     6    17    24    1
     7     2     8    1
     8     5     9    1
     9     5    10    1
    10     5    11    1
    11     9    12    1
    12     9    13    1
    13     9    14    1
    14    11    15    1
    15    14    16    1
    16    14    17    1
    17     8    19    1
    18    15    16    1
    19     8    15    1
    20    16     6    1
    21    16     7    1
    22    11    20    1
    23     1    21    1
    24     1    22    1
    25    17    23    1
    26     2    17    1
    27     2    25    1
    28    14    26    1
