@<TRIPOS>MOLECULE
*****
 12 12 0 0 0
SMALL
GASTEIGER

@<TRIPOS>ATOM
      1 H           1.2693   -0.0247    2.1340 H       1  UNL1        0.0618
      2 C           0.7242   -0.0211    1.1992 C.ar    1  UNL1       -0.0618
      3 C          -0.6641   -0.0122    1.2052 C.ar    1  UNL1       -0.0618
      4 H          -1.2012   -0.0089    2.1447 H       1  UNL1        0.0618
      5 C          -1.3634   -0.0077    0.0060 C.ar    1  UNL1       -0.0618
      6 H          -2.4455   -0.0007    0.0107 H       1  UNL1        0.0618
      7 C          -0.6745   -0.0120   -1.1992 C.ar    1  UNL1       -0.0618
      8 H          -1.2196   -0.0084   -2.1340 H       1  UNL1        0.0618
      9 C           0.7137   -0.0209   -1.2052 C.ar    1  UNL1       -0.0618
     10 H           1.2508   -0.0242   -2.1447 H       1  UNL1        0.0618
     11 C           1.4131   -0.0254   -0.0060 C.ar    1  UNL1       -0.0618
     12 H           2.4952   -0.0324   -0.0107 H       1  UNL1        0.0618
@<TRIPOS>BOND
     1     7     8    1
     2     9    10    1
     3     7     9   ar
     4     5     7   ar
     5     9    11   ar
     6     5     6    1
     7     3     5   ar
     8    11    12    1
     9     2    11   ar
    10     2     3   ar
    11     3     4    1
    12     1     2    1
