@<TRIPOS>MOLECULE
lvs 1 0 0   0 1 0   0 0 1
 16 20 0 0 0
SMALL
GASTEIGER

@<TRIPOS>ATOM
      1 C          -0.5326    3.6902    1.5422 C.3     1  UNL1       -0.0309
      2 C          -1.6103    2.9537    0.7297 C.3     1  UNL1       -0.0309
      3 C          -2.5338    2.9485    1.9591 C.3     1  UNL1       -0.0309
      4 C           0.0943    2.3579    1.9702 C.3     1  UNL1       -0.0309
      5 C          -1.0248    1.5942    1.1289 C.3     1  UNL1       -0.0309
      6 C          -1.9813    1.5894    2.4051 C.3     1  UNL1       -0.0309
      7 H           0.0209    4.5533    1.1934 H       1  UNL1        0.0309
      8 H          -1.9188    3.2265   -0.2718 H       1  UNL1        0.0309
      9 H          -3.5825    3.2174    1.9397 H       1  UNL1        0.0309
     10 H           1.1493    2.1197    1.9725 H       1  UNL1        0.0309
     11 H          -0.8540    0.7550    0.4680 H       1  UNL1        0.0309
     12 H          -2.5643    0.7478    2.7539 H       1  UNL1        0.0309
     13 C          -1.4559    3.6846    2.7718 C.3     1  UNL1       -0.0309
     14 C          -0.8621    2.3531    3.2464 C.3     1  UNL1       -0.0309
     15 H          -1.6448    4.5406    3.4076 H       1  UNL1        0.0309
     16 H          -0.5584    2.1153    4.2569 H       1  UNL1        0.0309
@<TRIPOS>BOND
     1     4     5    1
     2     5     6    1
     3     5    11    1
     4     1     2    1
     5     2     3    1
     6     6    12    1
     7     1     4    1
     8     2     5    1
     9     3     6    1
    10     1     7    1
    11     2     8    1
    12     3     9    1
    13     4    10    1
    14     1    13    1
    15     3    13    1
    16     4    14    1
    17     6    14    1
    18    13    14    1
    19    13    15    1
    20    14    16    1
