@<TRIPOS>MOLECULE
*****
 4 3 0 0 0
SMALL
GASTEIGER

@<TRIPOS>ATOM
      1 C          -0.1696    0.6340    0.0225 C.2     1  UNL1        0.1071
      2 O          -0.1815    1.8530   -0.0071 O.2     1  UNL1       -0.3047
      3 H          -1.1034    0.0830    0.0449 H       1  UNL1        0.0988
      4 H           0.7747    0.1008    0.0265 H       1  UNL1        0.0988
@<TRIPOS>BOND
     1     1     2    2
     2     1     3    1
     3     1     4    1
