@<TRIPOS>MOLECULE
*****
 5 4 0 0 0
SMALL
GASTEIGER

@<TRIPOS>ATOM
      1 C          -0.1680    0.6459    0.0222 C.2     1  UNL1       -0.0178
      2 N          -0.1435    1.9321   -0.0094 N.2     1  UNL1       -0.3150
      3 H          -1.1147    0.0824    0.0451 H       1  UNL1        0.0738
      4 H           0.7688    0.0668    0.0274 H       1  UNL1        0.0738
      5 H          -1.1009    2.3029   -0.0092 H       1  UNL1        0.1853
@<TRIPOS>BOND
     1     1     2    2
     2     1     3    1
     3     1     4    1
     4     2     5    1
