@<TRIPOS>MOLECULE
*****
 5 4 0 0 0
SMALL
GASTEIGER

@<TRIPOS>ATOM
      1 C           1.0554   -0.6718    0.0204 C.2     1  UNL1        0.2919
      2 O          -0.0556   -0.1659    0.0050 O.2     1  UNL1       -0.2548
      3 H           1.1556   -1.7510    0.0532 H       1  UNL1        0.1510
      4 O           2.1590    0.1028   -0.0031 O.3     1  UNL1       -0.4828
      5 H           2.0965    1.0681   -0.0324 H       1  UNL1        0.2948
@<TRIPOS>BOND
     1     1     2    2
     2     1     3    1
     3     1     4    1
     4     4     5    1
