@<TRIPOS>MOLECULE
*****
 3 2 0 0 0
SMALL
GASTEIGER

@<TRIPOS>ATOM
      1 O           0.7457    0.2445   -0.5797 O.3     1  HOH1       -0.4105
      2 H          -0.0883    0.7784   -0.5924 H       0  HOH0        0.2052
      3 H           1.4716    0.9180   -0.5924 H       0  HOH0        0.2052
@<TRIPOS>BOND
     1     1     2    1
     2     1     3    1
