@<TRIPOS>MOLECULE
*****
 6 5 0 0 0
SMALL
GASTEIGER

@<TRIPOS>ATOM
      1 O           1.0018    0.1191   -0.5766 O.3     1  UNL1       -0.3982
      2 C          -0.1949    0.8420   -0.5939 C.3     1  UNL1        0.0330
      3 H           1.7284    0.7949   -0.5894 H       1  UNL1        0.2090
      4 H          -1.0455    0.1298   -0.5807 H       1  UNL1        0.0521
      5 H          -0.2682    1.4880    0.3078 H       1  UNL1        0.0521
      6 H          -0.2648    1.4498   -1.5220 H       1  UNL1        0.0521
@<TRIPOS>BOND
     1     1     2    1
     2     1     3    1
     3     2     4    1
     4     2     5    1
     5     2     6    1
