@<TRIPOS>MOLECULE
*****
 4 3 0 0 0
SMALL
GASTEIGER

@<TRIPOS>ATOM
      1 N           0.7883    0.2820   -0.7057 N.3     1  UNL1       -0.3437
      2 H           1.6436   -0.2224   -1.0263 H       1  UNL1        0.1146
      3 H           0.7522    1.2045   -1.1954 H       1  UNL1        0.1146
      4 H          -0.0433   -0.2808   -0.9928 H       1  UNL1        0.1146
@<TRIPOS>BOND
     1     1     2    1
     2     1     3    1
     3     1     4    1
