@<TRIPOS>MOLECULE
*****
 8 8 0 0 0
SMALL
GASTEIGER

@<TRIPOS>ATOM
      1 N          -2.3602    2.1179   -0.0000 N.am    1  UNL1       -0.1640
      2 C          -1.9201    0.8963    0.0000 C.2     1  UNL1        0.1093
      3 C          -0.0644    1.9082    0.0000 C.2     1  UNL1        0.0928
      4 O          -1.0647    4.0667   -0.0000 O.2     1  UNL1       -0.2670
      5 N          -0.5437    0.7142    0.0000 N.2     1  UNL1       -0.2410
      6 H          -2.5930    0.0236    0.0000 H       1  UNL1        0.1019
      7 H           0.9690    2.2744    0.0000 H       1  UNL1        0.0884
      8 C          -1.2115    2.8612   -0.0000 C.2     1  UNL1        0.2796
@<TRIPOS>BOND
     1     1     2    2
     2     5     3    2
     3     8     4    2
     4     2     5    1
     5     2     6    1
     6     1     8    1
     7     3     7    1
     8     3     8    1
