@<TRIPOS>MOLECULE
lvs 1 0 0   0 1 0   0 0 1
 12 15 0 0 0
SMALL
GASTEIGER

@<TRIPOS>ATOM
      1 C          -0.9084    3.3992    1.3362 C.3     1  UNL1       -0.0309
      2 C          -1.5314    2.8614    0.0869 C.3     1  UNL1       -0.0309
      3 C          -2.3351    2.9942    1.4745 C.3     1  UNL1       -0.0309
      4 C          -0.3909    2.0377    1.6654 C.3     1  UNL1       -0.0309
      5 C          -1.0820    1.3945    0.5126 C.3     1  UNL1       -0.0309
      6 C          -1.7857    1.5771    1.9485 C.3     1  UNL1       -0.0309
      7 H          -0.4687    4.3664    1.4112 H       1  UNL1        0.0309
      8 H          -1.9324    3.2951   -0.7972 H       1  UNL1        0.0309
      9 H          -3.0836    3.6680    1.8143 H       1  UNL1        0.0309
     10 H           0.4640    1.7119    2.2108 H       1  UNL1        0.0309
     11 H          -0.6806    0.5498    0.0093 H       1  UNL1        0.0309
     12 H          -2.2106    0.7345    2.4374 H       1  UNL1        0.0309
@<TRIPOS>BOND
     1     4     5    1
     2     5     6    1
     3     4     6    1
     4     1     2    1
     5     2     3    1
     6     1     3    1
     7     1     4    1
     8     2     5    1
     9     3     6    1
    10     1     7    1
    11     2     8    1
    12     3     9    1
    13     4    10    1
    14     5    11    1
    15     6    12    1
